horizontalAxisWindTurbinesALMOpenFAST/horizontalAxisWindTurbinesALMOpenFAST.C

LIB = $(SOWFA_LIBBIN)/libSOWFATurbineModelsOpenFAST
